25058190
  -OEChem-07021808122D

 75 80  0     0  0  0  0  0  0999 V2000
    7.2871    0.9511    0.0000 As  0  0  0  0  0  0  0  0  0  0  0  0
    6.2871    0.9511    0.0000 As  0  0  0  0  0  0  0  0  0  0  0  0
    7.5961    0.0000    0.0000 As  0  0  0  0  0  0  0  0  0  0  0  0
    5.9781    0.0000    0.0000 As  0  0  0  0  0  0  0  0  0  0  0  0
    6.7871   -0.5878    0.0000 As  0  0  0  0  0  0  0  0  0  0  0  0
    9.6382    4.1871    0.0000 O   0  0  0  0  0  0  0  0  0  0  0  0
    3.9359    4.1871    0.0000 O   0  0  0  0  0  0  0  0  0  0  0  0
   11.4003   -1.2361    0.0000 O   0  0  0  0  0  0  0  0  0  0  0  0
    2.1738   -1.2361    0.0000 O   0  0  0  0  0  0  0  0  0  0  0  0
    6.7871   -4.5878    0.0000 O   0  0  0  0  0  0  0  0  0  0  0  0
   10.4517    2.3600    0.0000 N   0  0  0  0  0  0  0  0  0  0  0  0
    5.9250    4.3962    0.0000 N   0  0  0  0  0  0  0  0  0  0  0  0
    9.9140   -2.5743    0.0000 N   0  0  0  0  0  0  0  0  0  0  0  0
    2.5896    0.7202    0.0000 N   0  0  0  0  0  0  0  0  0  0  0  0
    5.0550   -3.5878    0.0000 N   0  0  0  0  0  0  0  0  0  0  0  0
    6.7871   -1.5878    0.0000 C   0  0  0  0  0  0  0  0  0  0  0  0
    5.0270   -0.3090    0.0000 C   0  0  0  0  0  0  0  0  0  0  0  0
    8.5472   -0.3090    0.0000 C   0  0  0  0  0  0  0  0  0  0  0  0
    5.6993    1.7601    0.0000 C   0  0  0  0  0  0  0  0  0  0  0  0
    7.8749    1.7601    0.0000 C   0  0  0  0  0  0  0  0  0  0  0  0
    8.8694    1.6556    0.0000 C   0  0  0  0  0  0  0  0  0  0  0  0
    6.1060    2.6736    0.0000 C   0  0  0  0  0  0  0  0  0  0  0  0
    8.7551   -1.2872    0.0000 C   0  0  0  0  0  0  0  0  0  0  0  0
    4.2839    0.3601    0.0000 C   0  0  0  0  0  0  0  0  0  0  0  0
    5.9210   -2.0878    0.0000 C   0  0  0  0  0  0  0  0  0  0  0  0
    7.4681    2.6736    0.0000 C   0  0  0  0  0  0  0  0  0  0  0  0
    4.7048    1.6556    0.0000 C   0  0  0  0  0  0  0  0  0  0  0  0
    9.2903    0.3601    0.0000 C   0  0  0  0  0  0  0  0  0  0  0  0
    4.8191   -1.2872    0.0000 C   0  0  0  0  0  0  0  0  0  0  0  0
    7.6531   -2.0878    0.0000 C   0  0  0  0  0  0  0  0  0  0  0  0
    9.4572    2.4646    0.0000 C   0  0  0  0  0  0  0  0  0  0  0  0
    5.5182    3.4826    0.0000 C   0  0  0  0  0  0  0  0  0  0  0  0
    9.7061   -1.5962    0.0000 C   0  0  0  0  0  0  0  0  0  0  0  0
    3.3328    0.0511    0.0000 C   0  0  0  0  0  0  0  0  0  0  0  0
    5.9210   -3.0878    0.0000 C   0  0  0  0  0  0  0  0  0  0  0  0
    8.0559    3.4826    0.0000 C   0  0  0  0  0  0  0  0  0  0  0  0
    4.1170    2.4646    0.0000 C   0  0  0  0  0  0  0  0  0  0  0  0
   10.2413    0.0511    0.0000 C   0  0  0  0  0  0  0  0  0  0  0  0
    3.8680   -1.5962    0.0000 C   0  0  0  0  0  0  0  0  0  0  0  0
    7.6531   -3.0878    0.0000 C   0  0  0  0  0  0  0  0  0  0  0  0
    6.7871   -3.5878    0.0000 C   0  0  0  0  0  0  0  0  0  0  0  0
    3.1249   -0.9270    0.0000 C   0  0  0  0  0  0  0  0  0  0  0  0
   10.4493   -0.9270    0.0000 C   0  0  0  0  0  0  0  0  0  0  0  0
    4.5237    3.3781    0.0000 C   0  0  0  0  0  0  0  0  0  0  0  0
    9.0504    3.3781    0.0000 C   0  0  0  0  0  0  0  0  0  0  0  0
    9.1216    1.0892    0.0000 H   0  0  0  0  0  0  0  0  0  0  0  0
    6.7226    2.7384    0.0000 H   0  0  0  0  0  0  0  0  0  0  0  0
    8.2943   -1.7020    0.0000 H   0  0  0  0  0  0  0  0  0  0  0  0
    4.4128    0.9666    0.0000 H   0  0  0  0  0  0  0  0  0  0  0  0
    5.3841   -1.7778    0.0000 H   0  0  0  0  0  0  0  0  0  0  0  0
    6.8515    2.7384    0.0000 H   0  0  0  0  0  0  0  0  0  0  0  0
    4.4526    1.0892    0.0000 H   0  0  0  0  0  0  0  0  0  0  0  0
    9.1614    0.9666    0.0000 H   0  0  0  0  0  0  0  0  0  0  0  0
    5.2798   -1.7020    0.0000 H   0  0  0  0  0  0  0  0  0  0  0  0
    8.1900   -1.7778    0.0000 H   0  0  0  0  0  0  0  0  0  0  0  0
    7.8037    4.0490    0.0000 H   0  0  0  0  0  0  0  0  0  0  0  0
    3.5004    2.3998    0.0000 H   0  0  0  0  0  0  0  0  0  0  0  0
   10.7021    0.4660    0.0000 H   0  0  0  0  0  0  0  0  0  0  0  0
    3.7391   -2.2026    0.0000 H   0  0  0  0  0  0  0  0  0  0  0  0
    8.1900   -3.3978    0.0000 H   0  0  0  0  0  0  0  0  0  0  0  0
   10.8161    2.8616    0.0000 H   0  0  0  0  0  0  0  0  0  0  0  0
   10.7039    1.7936    0.0000 H   0  0  0  0  0  0  0  0  0  0  0  0
    5.5606    4.8978    0.0000 H   0  0  0  0  0  0  0  0  0  0  0  0
    6.5416    4.4610    0.0000 H   0  0  0  0  0  0  0  0  0  0  0  0
   10.5037   -2.7659    0.0000 H   0  0  0  0  0  0  0  0  0  0  0  0
    9.4533   -2.9892    0.0000 H   0  0  0  0  0  0  0  0  0  0  0  0
    2.0000    0.5286    0.0000 H   0  0  0  0  0  0  0  0  0  0  0  0
    2.7186    1.3267    0.0000 H   0  0  0  0  0  0  0  0  0  0  0  0
    5.0550   -4.2078    0.0000 H   0  0  0  0  0  0  0  0  0  0  0  0
    4.5181   -3.2778    0.0000 H   0  0  0  0  0  0  0  0  0  0  0  0
    9.3860    4.7535    0.0000 H   0  0  0  0  0  0  0  0  0  0  0  0
    3.3193    4.1223    0.0000 H   0  0  0  0  0  0  0  0  0  0  0  0
   11.8611   -0.8212    0.0000 H   0  0  0  0  0  0  0  0  0  0  0  0
    2.0449   -1.8425    0.0000 H   0  0  0  0  0  0  0  0  0  0  0  0
    7.3240   -4.8978    0.0000 H   0  0  0  0  0  0  0  0  0  0  0  0
  1  2  1  0  0  0  0
  1  3  1  0  0  0  0
  1 20  1  0  0  0  0
  2  4  1  0  0  0  0
  2 19  1  0  0  0  0
  3  5  1  0  0  0  0
  3 18  1  0  0  0  0
  4  5  1  0  0  0  0
  4 17  1  0  0  0  0
  5 16  1  0  0  0  0
  6 45  1  0  0  0  0
  6 71  1  0  0  0  0
  7 44  1  0  0  0  0
  7 72  1  0  0  0  0
  8 43  1  0  0  0  0
  8 73  1  0  0  0  0
  9 42  1  0  0  0  0
  9 74  1  0  0  0  0
 10 41  1  0  0  0  0
 10 75  1  0  0  0  0
 11 31  1  0  0  0  0
 11 61  1  0  0  0  0
 11 62  1  0  0  0  0
 12 32  1  0  0  0  0
 12 63  1  0  0  0  0
 12 64  1  0  0  0  0
 13 33  1  0  0  0  0
 13 65  1  0  0  0  0
 13 66  1  0  0  0  0
 14 34  1  0  0  0  0
 14 67  1  0  0  0  0
 14 68  1  0  0  0  0
 15 35  1  0  0  0  0
 15 69  1  0  0  0  0
 15 70  1  0  0  0  0
 16 25  2  0  0  0  0
 16 30  1  0  0  0  0
 17 24  2  0  0  0  0
 17 29  1  0  0  0  0
 18 23  2  0  0  0  0
 18 28  1  0  0  0  0
 19 22  2  0  0  0  0
 19 27  1  0  0  0  0
 20 21  2  0  0  0  0
 20 26  1  0  0  0  0
 21 31  1  0  0  0  0
 21 46  1  0  0  0  0
 22 32  1  0  0  0  0
 22 47  1  0  0  0  0
 23 33  1  0  0  0  0
 23 48  1  0  0  0  0
 24 34  1  0  0  0  0
 24 49  1  0  0  0  0
 25 35  1  0  0  0  0
 25 50  1  0  0  0  0
 26 36  2  0  0  0  0
 26 51  1  0  0  0  0
 27 37  2  0  0  0  0
 27 52  1  0  0  0  0
 28 38  2  0  0  0  0
 28 53  1  0  0  0  0
 29 39  2  0  0  0  0
 29 54  1  0  0  0  0
 30 40  2  0  0  0  0
 30 55  1  0  0  0  0
 31 45  2  0  0  0  0
 32 44  2  0  0  0  0
 33 43  2  0  0  0  0
 34 42  2  0  0  0  0
 35 41  2  0  0  0  0
 36 45  1  0  0  0  0
 36 56  1  0  0  0  0
 37 44  1  0  0  0  0
 37 57  1  0  0  0  0
 38 43  1  0  0  0  0
 38 58  1  0  0  0  0
 39 42  1  0  0  0  0
 39 59  1  0  0  0  0
 40 41  1  0  0  0  0
 40 60  1  0  0  0  0
M  END
> <PUBCHEM_COMPOUND_CID>
25058190

> <PUBCHEM_COMPOUND_CANONICALIZED>
1

> <PUBCHEM_CACTVS_COMPLEXITY>
815

> <PUBCHEM_CACTVS_HBOND_ACCEPTOR>
10

> <PUBCHEM_CACTVS_HBOND_DONOR>
10

> <PUBCHEM_CACTVS_ROTATABLE_BOND>
5

> <PUBCHEM_CACTVS_SUBSKEYS>
AAADceB7uAAAAAAAQAAAAAAAAAAAASAAAAAwYMGDAAAAAAABVAAAHgEQCAACCAyBkAAwxoBAAgCAACRCQACCAAAgIgAIjAAHbIgKJiKSkZOAcABk0BEI2AeQQAAAAAAAAAAAEAAAAAAAAAAgAAAAAAAAAA==

> <PUBCHEM_IUPAC_OPENEYE_NAME>
2-amino-4-[2,3,4,5-tetrakis(3-amino-4-hydroxy-phenyl)pentaarsolan-1-yl]phenol

> <PUBCHEM_IUPAC_CAS_NAME>
2-amino-4-[2,3,4,5-tetrakis(3-amino-4-hydroxyphenyl)-1-pentaarsolanyl]phenol

> <PUBCHEM_IUPAC_NAME>
2-amino-4-[2,3,4,5-tetrakis(3-amino-4-hydroxyphenyl)pentaarsolan-1-yl]phenol

> <PUBCHEM_IUPAC_SYSTEMATIC_NAME>
2-azanyl-4-[2,3,4,5-tetrakis(3-azanyl-4-oxidanyl-phenyl)-1,2,3,4,5-pentaarsolan-1-yl]phenol

> <PUBCHEM_IUPAC_TRADITIONAL_NAME>
2-amino-4-[2,3,4,5-tetrakis(3-amino-4-hydroxy-phenyl)pentaarsolan-1-yl]phenol

> <PUBCHEM_IUPAC_INCHI>
InChI=1S/C30H30As5N5O5/c36-21-11-16(1-6-26(21)41)31-32(17-2-7-27(42)22(37)12-17)34(19-4-9-29(44)24(39)14-19)35(20-5-10-30(45)25(40)15-20)33(31)18-3-8-28(43)23(38)13-18/h1-15,41-45H,36-40H2

> <PUBCHEM_IUPAC_INCHIKEY>
QKDVYBBXPCCURL-UHFFFAOYSA-N

> <PUBCHEM_EXACT_MASS>
914.833

> <PUBCHEM_MOLECULAR_FORMULA>
C30H30As5N5O5

> <PUBCHEM_MOLECULAR_WEIGHT>
915.208

> <PUBCHEM_OPENEYE_CAN_SMILES>
C1=CC(=C(C=C1[As]2[As]([As]([As]([As]2C3=CC(=C(C=C3)O)N)C4=CC(=C(C=C4)O)N)C5=CC(=C(C=C5)O)N)C6=CC(=C(C=C6)O)N)N)O

> <PUBCHEM_OPENEYE_ISO_SMILES>
C1=CC(=C(C=C1[As]2[As]([As]([As]([As]2C3=CC(=C(C=C3)O)N)C4=CC(=C(C=C4)O)N)C5=CC(=C(C=C5)O)N)C6=CC(=C(C=C6)O)N)N)O

> <PUBCHEM_CACTVS_TPSA>
231

> <PUBCHEM_MONOISOTOPIC_WEIGHT>
914.833

> <PUBCHEM_TOTAL_CHARGE>
0

> <PUBCHEM_HEAVY_ATOM_COUNT>
45

> <PUBCHEM_ATOM_DEF_STEREO_COUNT>
0

> <PUBCHEM_ATOM_UDEF_STEREO_COUNT>
0

> <PUBCHEM_BOND_DEF_STEREO_COUNT>
0

> <PUBCHEM_BOND_UDEF_STEREO_COUNT>
0

> <PUBCHEM_ISOTOPIC_ATOM_COUNT>
0

> <PUBCHEM_COMPONENT_COUNT>
1

> <PUBCHEM_CACTVS_TAUTO_COUNT>
38

> <PUBCHEM_COORDINATE_TYPE>
1
5
255

> <PUBCHEM_BONDANNOTATIONS>
1  2  8
1  3  8
16  25  8
16  30  8
17  24  8
17  29  8
18  23  8
18  28  8
19  22  8
19  27  8
2  4  8
20  21  8
20  26  8
21  31  8
22  32  8
23  33  8
24  34  8
25  35  8
26  36  8
27  37  8
28  38  8
29  39  8
3  5  8
30  40  8
31  45  8
32  44  8
33  43  8
34  42  8
35  41  8
36  45  8
37  44  8
38  43  8
39  42  8
4  5  8
40  41  8

$$$$
